.. meta::96b20668f299d7dbb204cda28b79653f3dcf4450aaf8b32d7e9d6ed55c25a3f7eabc054cf20c42bccc7193c3b61490acb41679c3e21c25ef9573bf0e08481ec0

:orphan:

.. title:: Kynema-FMB API: kynema_fmb::util::AeroDynInflowLibrary Class Reference

AeroDynInflowLibrary Class Reference
====================================

.. container:: doxygen-content

   
   .. raw:: html
     :file: classkynema__fmb_1_1util_1_1AeroDynInflowLibrary.html
