.. meta::537b5d59b035575d713236cf0ee30986d93f6e5215a2e96268a94cc56e45557b6f89613f3d18eb4e580723ead5ca3047d35419f62830f34413a33e661746efac

:orphan:

.. title:: Kynema-FMB API: Member List

Member List
===========

.. container:: doxygen-content

   
   .. raw:: html
     :file: classkynema__fmb_1_1util_1_1AeroDynInflowLibrary-members.html
